/*---------------------------------------------------------------------------*\
| =========                 |                                                 |
| \\      /  F ield         | OpenFOAM: The Open Source CFD Toolbox           |
|  \\    /   O peration     | Version:  v2106                                 |
|   \\  /    A nd           | Website:  www.openfoam.com                      |
|    \\/     M anipulation  |                                                 |
\*---------------------------------------------------------------------------*/
Build  : _40a7d5d6-20210727 OPENFOAM=2106 patch=211215
Arch   : "LSB;label=32;scalar=64"
Exec   : blockMesh
Date   : Nov 13 2022
Time   : 10:36:54
Host   : LAPTOP-S9TPPSQ2
PID    : 1365
I/O    : uncollated
Case   : /mnt/e/OpenFOAM_result/exercise/snappy_pipe
nProcs : 1
trapFpe: Floating point exception trapping enabled (FOAM_SIGFPE).
fileModificationChecking : Monitoring run-time modified files using timeStampMaster (fileModificationSkew 5, maxFileModificationPolls 20)
allowSystemOperations : Allowing user-supplied system call operations

// * * * * * * * * * * * * * * * * * * * * * * * * * * * * * * * * * * * * * //
Create time

Creating block mesh from "system/blockMeshDict"
Creating block edges
No non-planar block faces defined
Creating topology blocks
Creating topology patches

Creating block mesh topology

Check topology

	Basic statistics
		Number of internal faces : 0
		Number of boundary faces : 6
		Number of defined boundary faces : 6
		Number of undefined boundary faces : 0
	Checking patch -> block consistency

Creating block offsets
Creating merge list (topological search)...
Deleting polyMesh directory "constant/polyMesh"

Creating polyMesh from blockMesh
Creating patches
Creating cells
Creating points with scale 1
    Block 0 cell size :
        i : 0.1 .. 0.1
        j : 0.1 .. 0.1
        k : 0.42 .. 0.42


There are no merge patch pairs

Writing polyMesh with 0 cellZones
----------------
Mesh Information
----------------
  boundingBox: (-0.6 -0.6 -1) (1.4 1.4 41)
  nPoints: 44541
  nCells: 40000
  nFaces: 124400
  nInternalFaces: 115600
----------------
Patches
----------------
  patch 0 (start: 115600 size: 2000) name: movingWall
  patch 1 (start: 117600 size: 6000) name: fixedWalls
  patch 2 (start: 123600 size: 800) name: frontAndBack

End

